@<TRIPOS>MOLECULE
*****
 16 17 0 0 0
SMALL
GASTEIGER

@<TRIPOS>ATOM
      1 C           1.3810   -0.2275    0.0605 C.ar    1  UNL1       -0.0618
      2 C           0.4929   -1.3012    0.1274 C.ar    1  UNL1       -0.0617
      3 C          -0.8842   -1.0743    0.0575 C.ar    1  UNL1       -0.0600
      4 C          -1.3739    0.2297   -0.0902 C.ar    1  UNL1       -0.0317
      5 C          -0.4781    1.3041   -0.1537 C.ar    1  UNL1       -0.0600
      6 C           0.8975    1.0738   -0.0750 C.ar    1  UNL1       -0.0617
      7 C          -2.8639    0.4753   -0.1862 C.ar    1  UNL1        0.0432
      8 N          -3.8036   -0.5037   -0.1307 N.ar    1  UNL1       -0.2895
      9 N          -4.9863    0.1450   -0.2450 N.ar    1  UNL1       -0.2180
     10 N          -4.7595    1.4682   -0.3805 N.ar    1  UNL1       -0.2180
     11 N          -3.4265    1.7014   -0.3429 N.ar    1  UNL1       -0.2895
     12 H           2.4511   -0.4056    0.1140 H       1  UNL1        0.0618
     13 H           0.8651   -2.3160    0.2321 H       1  UNL1        0.0618
     14 H          -1.5748   -1.9129    0.1138 H       1  UNL1        0.0618
     15 H          -0.8518    2.3198   -0.2653 H       1  UNL1        0.0618
     16 H           1.5863    1.9126   -0.1233 H       1  UNL1        0.0618
@<TRIPOS>UNITY_ATOM_ATTR
11 1
charge -1
@<TRIPOS>BOND
     1     1     2   ar
     2     2     3   ar
     3     3     4   ar
     4     4     5   ar
     5     5     6   ar
     6     1     6   ar
     7     4     7    1
     8     7     8   ar
     9     8     9   ar
    10     9    10   ar
    11    10    11   ar
    12     7    11   ar
    13     1    12    1
    14     2    13    1
    15     3    14    1
    16     5    15    1
    17     6    16    1
