lig
 OpenBabel04182316263D

 65 68  0  0  0  0  0  0  0  0999 V2000
    2.6785   -0.7838   -0.8509 C   0  0  0  0  0  0  0  0  0  0  0  0
    7.5717    0.0660   -3.3018 C   0  0  0  0  0  0  0  0  0  0  0  0
    3.8640    5.6593    4.5780 C   0  0  0  0  0  0  0  0  0  0  0  0
    4.9177    5.3145    2.4334 C   0  0  0  0  0  0  0  0  0  0  0  0
   -1.4467    2.0793    4.0138 C   0  0  0  0  0  0  0  0  0  0  0  0
   -0.0087    3.7065    2.3001 C   0  0  0  0  0  0  0  0  0  0  0  0
    4.5307    3.0689   -0.2950 C   0  0  0  0  0  0  0  0  0  0  0  0
    2.5914    2.0451    1.3452 C   0  0  0  0  0  0  0  0  0  0  0  0
    6.0706    0.0676   -2.9484 C   0  0  0  0  0  0  0  0  0  0  0  0
    5.6469    1.3078   -2.1603 C   0  0  0  0  0  0  0  0  0  0  0  0
   11.2536   -1.4305   -0.1528 C   0  0  0  0  0  0  0  0  0  0  0  0
    9.8813    0.3671   -2.5146 C   0  0  0  0  0  0  0  0  0  0  0  0
    8.3327   -0.7940   -1.1190 C   0  0  0  0  0  0  0  0  0  0  0  0
   10.7725    0.6820   -1.2768 C   0  0  0  0  0  0  0  0  0  0  0  0
    9.1066   -0.3487    0.1395 C   0  0  0  0  0  0  0  0  0  0  0  0
   -1.3085    3.3085    1.9284 C   0  0  0  0  0  0  0  0  0  0  0  0
   -2.0258    2.4807    2.8011 C   0  0  0  0  0  0  0  0  0  0  0  0
   -0.1614    2.4940    4.3631 C   0  0  0  0  0  0  0  0  0  0  0  0
    3.8252    6.2058    5.6037 N   0  0  0  0  0  0  0  0  0  0  0  0
    5.0748    4.7349    1.2259 N   0  0  0  0  0  0  0  0  0  0  0  0
    1.9242    3.6516    3.8230 N   0  0  0  0  0  0  0  0  0  0  0  0
    2.1458    0.2354   -0.0183 O   0  0  0  0  0  0  0  0  0  0  0  0
    4.2500    1.2144   -1.8246 O   0  0  0  0  0  0  0  0  0  0  0  0
    3.9252    4.9660    3.3306 C   0  0  0  0  0  0  0  0  0  0  0  0
    0.5868    3.3153    3.5080 C   0  0  0  0  0  0  0  0  0  0  0  0
    2.9015    1.3636    0.1577 C   0  0  0  0  0  0  0  0  0  0  0  0
    3.8990    1.8750   -0.6698 C   0  0  0  0  0  0  0  0  0  0  0  0
    3.0347    3.9303    2.9809 C   0  0  0  0  0  0  0  0  0  0  0  0
    4.2811    3.7031    0.9108 C   0  0  0  0  0  0  0  0  0  0  0  0
    3.2564    3.2296    1.7575 C   0  0  0  0  0  0  0  0  0  0  0  0
    8.4540    0.2512   -2.1477 N   0  0  0  0  0  0  0  0  0  0  0  0
   10.5526   -0.1536   -0.0751 N   0  0  0  0  0  0  0  0  0  0  0  0
   -3.6178    1.8696    2.5227 Cl  0  0  0  0  0  0  0  0  0  0  0  0
    0.5029    1.9301    5.8573 Cl  0  0  0  0  0  0  0  0  0  0  0  0
   -2.9207    3.5953    0.1433 C   0  0  0  0  0  0  0  0  0  0  0  0
   -1.6446    3.8285    0.7103 O   0  0  0  0  0  0  0  0  0  0  0  0
    3.7206   -1.0029   -0.6010 H   0  0  0  0  0  0  0  0  0  0  0  0
    2.5547   -0.5289   -1.9073 H   0  0  0  0  0  0  0  0  0  0  0  0
    7.8159   -0.8591   -3.8375 H   0  0  0  0  0  0  0  0  0  0  0  0
    7.7390    0.8942   -4.0031 H   0  0  0  0  0  0  0  0  0  0  0  0
    5.6545    6.0807    2.6583 H   0  0  0  0  0  0  0  0  0  0  0  0
    2.1001   -1.6951   -0.6683 H   0  0  0  0  0  0  0  0  0  0  0  0
   -1.9977    1.4258    4.6873 H   0  0  0  0  0  0  0  0  0  0  0  0
    0.5442    4.3465    1.6134 H   0  0  0  0  0  0  0  0  0  0  0  0
    5.2759    3.5203   -0.9462 H   0  0  0  0  0  0  0  0  0  0  0  0
    1.8468    1.5915    1.9931 H   0  0  0  0  0  0  0  0  0  0  0  0
    5.4800    0.0090   -3.8708 H   0  0  0  0  0  0  0  0  0  0  0  0
    5.8029   -0.8343   -2.3852 H   0  0  0  0  0  0  0  0  0  0  0  0
    5.8008    2.2044   -2.7711 H   0  0  0  0  0  0  0  0  0  0  0  0
    6.2519    1.3752   -1.2484 H   0  0  0  0  0  0  0  0  0  0  0  0
   12.3363   -1.2682   -0.1772 H   0  0  0  0  0  0  0  0  0  0  0  0
   10.9736   -2.0246   -1.0279 H   0  0  0  0  0  0  0  0  0  0  0  0
   11.0538   -2.0283    0.7448 H   0  0  0  0  0  0  0  0  0  0  0  0
   10.2328   -0.5589   -2.9891 H   0  0  0  0  0  0  0  0  0  0  0  0
   10.0165    1.1762   -3.2427 H   0  0  0  0  0  0  0  0  0  0  0  0
    8.7049   -1.7574   -1.4922 H   0  0  0  0  0  0  0  0  0  0  0  0
    7.2924   -0.9490   -0.8212 H   0  0  0  0  0  0  0  0  0  0  0  0
   11.8303    0.6562   -1.5688 H   0  0  0  0  0  0  0  0  0  0  0  0
   10.5772    1.7222   -0.9836 H   0  0  0  0  0  0  0  0  0  0  0  0
    8.6828    0.6040    0.4873 H   0  0  0  0  0  0  0  0  0  0  0  0
    8.9301   -1.0601    0.9549 H   0  0  0  0  0  0  0  0  0  0  0  0
    2.0257    3.9031    4.8060 H   0  0  0  0  0  0  0  0  0  0  0  0
   -3.7175    3.9887    0.7805 H   0  0  0  0  0  0  0  0  0  0  0  0
   -3.0581    2.5380   -0.1001 H   0  0  0  0  0  0  0  0  0  0  0  0
   -2.9665    4.1489   -0.8001 H   0  0  0  0  0  0  0  0  0  0  0  0
  1 42  1  0  0  0  0
  1 22  1  0  0  0  0
  2 39  1  0  0  0  0
  3 19  3  0  0  0  0
  4 41  1  0  0  0  0
  5 18  2  0  0  0  0
  5 17  1  0  0  0  0
  6 44  1  0  0  0  0
  7 29  1  0  0  0  0
  7 45  1  0  0  0  0
  8 30  1  0  0  0  0
  9  2  1  0  0  0  0
  9 10  1  0  0  0  0
 10 49  1  0  0  0  0
 10 50  1  0  0  0  0
 11 32  1  0  0  0  0
 11 53  1  0  0  0  0
 12 55  1  0  0  0  0
 13 31  1  0  0  0  0
 14 59  1  0  0  0  0
 14 12  1  0  0  0  0
 14 58  1  0  0  0  0
 15 13  1  0  0  0  0
 15 32  1  0  0  0  0
 15 61  1  0  0  0  0
 16  6  1  0  0  0  0
 16 36  1  0  0  0  0
 17 16  2  0  0  0  0
 18 25  1  0  0  0  0
 20  4  1  0  0  0  0
 21 28  1  0  0  0  0
 22 26  1  0  0  0  0
 23 10  1  0  0  0  0
 23 27  1  0  0  0  0
 24  3  1  0  0  0  0
 24  4  2  0  0  0  0
 25 21  1  0  0  0  0
 25  6  2  0  0  0  0
 26  8  2  0  0  0  0
 26 27  1  0  0  0  0
 27  7  2  0  0  0  0
 28 24  1  0  0  0  0
 29 20  2  0  0  0  0
 30 28  2  0  0  0  0
 30 29  1  0  0  0  0
 31  2  1  0  0  0  0
 31 12  1  0  0  0  0
 32 14  1  0  0  0  0
 33 17  1  0  0  0  0
 34 18  1  0  0  0  0
 35 63  1  0  0  0  0
 35 36  1  0  0  0  0
 35 65  1  0  0  0  0
 37  1  1  0  0  0  0
 38  1  1  0  0  0  0
 40  2  1  0  0  0  0
 43  5  1  0  0  0  0
 46  8  1  0  0  0  0
 47  9  1  0  0  0  0
 48  9  1  0  0  0  0
 51 11  1  0  0  0  0
 52 11  1  0  0  0  0
 54 12  1  0  0  0  0
 56 13  1  0  0  0  0
 57 13  1  0  0  0  0
 60 15  1  0  0  0  0
 62 21  1  0  0  0  0
 64 35  1  0  0  0  0
M  END
