*****
  MJ221101                      

 65 68  0  0  0  0  0  0  0  0999 V2000
    4.1028   -0.3839    0.0000 C   0  0  0  0  0  0  0  0  0  0  0  0
    4.1028    2.9161    0.0000 C   0  0  0  0  0  0  0  0  0  0  0  0
   -0.8985   -0.7964    0.0000 C   0  0  0  0  0  0  0  0  0  0  0  0
   -0.1840    0.4411    0.0000 C   0  0  0  0  0  0  0  0  0  0  0  0
   -0.8985   -3.2714    0.0000 C   0  0  0  0  0  0  0  0  0  0  0  0
   -0.8985   -1.6214    0.0000 C   0  0  0  0  0  0  0  0  0  0  0  0
    1.9594    0.8536    0.0000 C   0  0  0  0  0  0  0  0  0  0  0  0
    1.9594   -0.7964    0.0000 C   0  0  0  0  0  0  0  0  0  0  0  0
    4.1028    2.0911    0.0000 C   0  0  0  0  0  0  0  0  0  0  0  0
    3.3883    1.6786    0.0000 C   0  0  0  0  0  0  0  0  0  0  0  0
    6.9607    4.5660    0.0000 C   0  0  0  0  0  0  0  0  0  0  0  0
    5.5317    2.9161    0.0000 C   0  0  0  0  0  0  0  0  0  0  0  0
    4.8173    4.1536    0.0000 C   0  0  0  0  0  0  0  0  0  0  0  0
    6.2462    3.3286    0.0000 C   0  0  0  0  0  0  0  0  0  0  0  0
    5.5317    4.5660    0.0000 C   0  0  0  0  0  0  0  0  0  0  0  0
   -1.6130   -2.0339    0.0000 C   0  0  0  0  0  0  0  0  0  0  0  0
   -1.6130   -2.8589    0.0000 C   0  0  0  0  0  0  0  0  0  0  0  0
   -0.1840   -2.8589    0.0000 C   0  0  0  0  0  0  0  0  0  0  0  0
   -1.6130   -1.2089    0.0000 N   0  0  0  0  0  0  0  0  0  0  0  0
    0.5304    0.8536    0.0000 N   0  0  0  0  0  0  0  0  0  0  0  0
    0.5304   -1.6214    0.0000 N   0  0  0  0  0  0  0  0  0  0  0  0
    3.3883   -0.7964    0.0000 O   0  0  0  0  0  0  0  0  0  0  0  0
    3.3883    0.8536    0.0000 O   0  0  0  0  0  0  0  0  0  0  0  0
   -0.1840   -0.3839    0.0000 C   0  0  0  0  0  0  0  0  0  0  0  0
   -0.1840   -2.0339    0.0000 C   0  0  0  0  0  0  0  0  0  0  0  0
    2.6739   -0.3839    0.0000 C   0  0  0  0  0  0  0  0  0  0  0  0
    2.6739    0.4411    0.0000 C   0  0  0  0  0  0  0  0  0  0  0  0
    0.5304   -0.7964    0.0000 C   0  0  0  0  0  0  0  0  0  0  0  0
    1.2448    0.4411    0.0000 C   0  0  0  0  0  0  0  0  0  0  0  0
    1.2448   -0.3839    0.0000 C   0  0  0  0  0  0  0  0  0  0  0  0
    4.8173    3.3286    0.0000 N   0  0  0  0  0  0  0  0  0  0  0  0
    6.2462    4.1536    0.0000 N   0  0  0  0  0  0  0  0  0  0  0  0
   -2.3274   -3.2714    0.0000 Cl  0  0  0  0  0  0  0  0  0  0  0  0
    0.5304   -3.2714    0.0000 Cl  0  0  0  0  0  0  0  0  0  0  0  0
   -2.3274   -0.7964    0.0000 C   0  0  0  0  0  0  0  0  0  0  0  0
   -2.3274   -1.6214    0.0000 O   0  0  0  0  0  0  0  0  0  0  0  0
    4.8173    0.0286    0.0000 H   0  0  0  0  0  0  0  0  0  0  0  0
    4.5153   -1.0984    0.0000 H   0  0  0  0  0  0  0  0  0  0  0  0
    3.2792    2.9640    0.0000 H   0  0  0  0  0  0  0  0  0  0  0  0
    3.6495    3.6053    0.0000 H   0  0  0  0  0  0  0  0  0  0  0  0
   -0.8985    0.8536    0.0000 H   0  0  0  0  0  0  0  0  0  0  0  0
    3.6903    0.3305    0.0000 H   0  0  0  0  0  0  0  0  0  0  0  0
   -0.8985   -4.0964    0.0000 H   0  0  0  0  0  0  0  0  0  0  0  0
   -0.1840   -1.2089    0.0000 H   0  0  0  0  0  0  0  0  0  0  0  0
    1.9594    1.6786    0.0000 H   0  0  0  0  0  0  0  0  0  0  0  0
    1.9594   -1.6214    0.0000 H   0  0  0  0  0  0  0  0  0  0  0  0
    4.9264    2.0431    0.0000 H   0  0  0  0  0  0  0  0  0  0  0  0
    4.5561    1.4018    0.0000 H   0  0  0  0  0  0  0  0  0  0  0  0
    2.9350    2.3678    0.0000 H   0  0  0  0  0  0  0  0  0  0  0  0
    2.5647    1.7265    0.0000 H   0  0  0  0  0  0  0  0  0  0  0  0
    7.6752    4.9786    0.0000 H   0  0  0  0  0  0  0  0  0  0  0  0
    7.3732    3.8516    0.0000 H   0  0  0  0  0  0  0  0  0  0  0  0
    6.5481    5.2805    0.0000 H   0  0  0  0  0  0  0  0  0  0  0  0
    5.1615    2.1788    0.0000 H   0  0  0  0  0  0  0  0  0  0  0  0
    5.9020    2.1788    0.0000 H   0  0  0  0  0  0  0  0  0  0  0  0
    3.9937    4.2015    0.0000 H   0  0  0  0  0  0  0  0  0  0  0  0
    4.3638    4.8428    0.0000 H   0  0  0  0  0  0  0  0  0  0  0  0
    7.0698    3.2806    0.0000 H   0  0  0  0  0  0  0  0  0  0  0  0
    6.6996    2.6393    0.0000 H   0  0  0  0  0  0  0  0  0  0  0  0
    5.9020    5.3033    0.0000 H   0  0  0  0  0  0  0  0  0  0  0  0
    5.1615    5.3033    0.0000 H   0  0  0  0  0  0  0  0  0  0  0  0
    1.2448   -2.0339    0.0000 H   0  0  0  0  0  0  0  0  0  0  0  0
   -2.7399   -0.0820    0.0000 H   0  0  0  0  0  0  0  0  0  0  0  0
   -1.7441   -0.2131    0.0000 H   0  0  0  0  0  0  0  0  0  0  0  0
   -3.1243   -1.0100    0.0000 H   0  0  0  0  0  0  0  0  0  0  0  0
 43  5  1  0  0  0  0
 60 15  1  0  0  0  0
 52 11  1  0  0  0  0
 38  1  1  0  0  0  0
 37  1  1  0  0  0  0
 34 18  1  0  0  0  0
 57 13  1  0  0  0  0
 51 11  1  0  0  0  0
 33 17  1  0  0  0  0
  5 18  4  0  0  0  0
  5 17  4  0  0  0  0
  1 42  1  0  0  0  0
  1 22  1  0  0  0  0
 11 32  1  0  0  0  0
 11 53  1  0  0  0  0
 15 13  1  0  0  0  0
 15 32  1  0  0  0  0
 15 61  1  0  0  0  0
 56 13  1  0  0  0  0
 13 31  1  0  0  0  0
 32 14  1  0  0  0  0
 18 25  4  0  0  0  0
 17 16  4  0  0  0  0
 22 26  1  0  0  0  0
 64 35  1  0  0  0  0
 40  2  1  0  0  0  0
 48  9  1  0  0  0  0
 46  8  1  0  0  0  0
 54 12  1  0  0  0  0
 47  9  1  0  0  0  0
 31  2  1  0  0  0  0
 31 12  1  0  0  0  0
 14 59  1  0  0  0  0
 14 12  1  0  0  0  0
 14 58  1  0  0  0  0
 62 21  1  0  0  0  0
 25 21  1  0  0  0  0
 25  6  4  0  0  0  0
 16  6  4  0  0  0  0
 16 36  1  0  0  0  0
  9  2  1  0  0  0  0
  9 10  1  0  0  0  0
  2 39  1  0  0  0  0
 12 55  1  0  0  0  0
 35 63  1  0  0  0  0
 35 36  1  0  0  0  0
 35 65  1  0  0  0  0
 26  8  4  0  0  0  0
 26 27  4  0  0  0  0
  8 30  4  0  0  0  0
 21 28  1  0  0  0  0
  6 44  1  0  0  0  0
 23 10  1  0  0  0  0
 23 27  1  0  0  0  0
 10 49  1  0  0  0  0
 10 50  1  0  0  0  0
 27  7  4  0  0  0  0
 30 28  4  0  0  0  0
 30 29  4  0  0  0  0
 28 24  4  0  0  0  0
  7 29  4  0  0  0  0
  7 45  1  0  0  0  0
 29 20  4  0  0  0  0
 24  3  1  0  0  0  0
 24  4  4  0  0  0  0
  3 19  3  0  0  0  0
 20  4  4  0  0  0  0
  4 41  1  0  0  0  0
M  END
