@<TRIPOS>MOLECULE
lig
 65 68 0 0 0
SMALL
GASTEIGER

@<TRIPOS>ATOM
      1 C          -3.9563   -0.8984    2.6487 C.3     1  UNL11       0.0790
      2 C          -1.0508   -6.1711    0.8545 C.3     1  UNL11       0.0021
      3 C           2.3547    3.5611    1.8794 C.1     1  UNL11       0.1026
      4 C           1.8352    2.0477    0.1602 C.ar    1  UNL11       0.0474
      5 C          -2.5565    4.7088    1.8239 C.ar    1  UNL11      -0.0197
      6 C          -1.2908    4.2422    4.3937 C.ar    1  UNL11       0.0041
      7 C          -0.4419   -0.8503    0.0891 C.ar    1  UNL11       0.0097
      8 C          -1.0475    0.1954    2.7376 C.ar    1  UNL11      -0.0053
      9 C          -1.7702   -4.9137    0.3540 C.3     1  UNL11      -0.0058
     10 C          -1.1657   -3.7189    1.0287 C.3     1  UNL11       0.0909
     11 C          -2.0269  -10.0919    3.5222 C.3     1  UNL11      -0.0127
     12 C          -0.9204   -8.5847    0.6081 C.3     1  UNL11       0.0117
     13 C          -3.1764   -7.3768    1.2104 C.3     1  UNL11       0.0117
     14 C          -1.6731   -9.8414    1.1420 C.3     1  UNL11       0.0114
     15 C          -3.1681   -8.2276    2.4974 C.3     1  UNL11       0.0114
     16 C          -2.3806    5.1778    4.2889 C.ar    1  UNL11       0.1402
     17 C          -2.9738    5.3882    3.0076 C.ar    1  UNL11       0.0840
     18 C          -1.4767    3.7827    1.9472 C.ar    1  UNL11       0.0637
     19 N           2.9741    4.4533    2.2513 N.1     1  UNL11      -0.1908
     20 N           1.1101    0.9527   -0.2232 N.ar    1  UNL11      -0.2535
     21 N           0.2558    2.7078    3.3468 N.pl3   1  UNL11      -0.3117
     22 O          -2.7123   -1.5004    2.9748 O.3     1  UNL11      -0.4914
     23 O          -1.9714   -2.6226    0.5762 O.3     1  UNL11      -0.4882
     24 C           1.6575    2.5571    1.4609 C.ar    1  UNL11       0.0915
     25 C          -0.8308    3.5572    3.2268 C.ar    1  UNL11       0.0535
     26 C          -1.7310   -0.9300    2.2440 C.ar    1  UNL11       0.1622
     27 C          -1.3836   -1.4682    0.9660 C.ar    1  UNL11       0.1639
     28 C           0.6920    1.9393    2.3026 C.ar    1  UNL11       0.0598
     29 C           0.2295    0.2879    0.5776 C.ar    1  UNL11       0.0765
     30 C          -0.0355    0.7797    1.9111 C.ar    1  UNL11       0.0265
     31 N          -1.8255   -7.3862    0.5291 N.3     1  UNL11      -0.2998
     32 N          -2.6220   -9.6018    2.2800 N.3     1  UNL11      -0.3029
     33 CL         -4.2366    6.5001    2.8860 Cl      1  UNL11      -0.0797
     34 CL         -0.9446    2.9392    0.5866 Cl      1  UNL11      -0.0816
     35 C          -3.8592    5.0844    5.9983 C.3     1  UNL11       0.0789
     36 O          -2.8304    5.8399    5.3760 O.3     1  UNL11      -0.4936
     37 H          -4.7487   -1.3590    3.2387 H       1  UNL11       0.0660
     38 H          -4.1626   -1.0423    1.5881 H       1  UNL11       0.0660
     39 H          -0.9136   -6.1059    1.9338 H       1  UNL11       0.0428
     40 H          -0.0585   -6.2154    0.4056 H       1  UNL11       0.0428
     41 H           2.4924    2.4871   -0.4843 H       1  UNL11       0.0843
     42 H          -3.9126    0.1682    2.8688 H       1  UNL11       0.0660
     43 H          -3.0110    4.8780    0.9266 H       1  UNL11       0.0648
     44 H          -0.8493    4.0692    5.2967 H       1  UNL11       0.0674
     45 H          -0.2636   -1.2154   -0.8464 H       1  UNL11       0.0677
     46 H          -1.2659    0.5830    3.6555 H       1  UNL11       0.0662
     47 H          -2.8289   -4.9763    0.6059 H       1  UNL11       0.0310
     48 H          -1.7211   -4.8288   -0.7316 H       1  UNL11       0.0310
     49 H          -1.2664   -3.8221    2.1092 H       1  UNL11       0.0697
     50 H          -0.1107   -3.5831    0.7907 H       1  UNL11       0.0697
     51 H          -1.6287  -11.0940    3.3637 H       1  UNL11       0.0391
     52 H          -2.7877  -10.1224    4.3022 H       1  UNL11       0.0391
     53 H          -1.2208   -9.4245    3.8269 H       1  UNL11       0.0391
     54 H          -0.5127   -8.7979   -0.3801 H       1  UNL11       0.0439
     55 H          -0.1205   -8.3340    1.3048 H       1  UNL11       0.0439
     56 H          -3.9316   -7.7617    0.5252 H       1  UNL11       0.0439
     57 H          -3.4675   -6.3576    1.4647 H       1  UNL11       0.0439
     58 H          -2.2044  -10.3227    0.3210 H       1  UNL11       0.0439
     59 H          -0.9178  -10.5600    1.4604 H       1  UNL11       0.0439
     60 H          -4.1813   -8.2977    2.8931 H       1  UNL11       0.0439
     61 H          -2.5145   -7.7439    3.2232 H       1  UNL11       0.0439
     62 H           0.1461    2.1517    4.1339 H       1  UNL11       0.1522
     63 H          -4.2223    5.6190    6.8761 H       1  UNL11       0.0660
     64 H          -4.6798    4.9401    5.2956 H       1  UNL11       0.0660
     65 H          -3.4651    4.1142    6.3010 H       1  UNL11       0.0660
@<TRIPOS>BOND
     1    43     5    1
     2    60    15    1
     3    52    11    1
     4    38     1    1
     5    37     1    1
     6    34    18    1
     7    57    13    1
     8    51    11    1
     9    33    17    1
    10     5    18   ar
    11     5    17   ar
    12     1    42    1
    13     1    22    1
    14    11    32    1
    15    11    53    1
    16    15    13    1
    17    15    32    1
    18    15    61    1
    19    56    13    1
    20    13    31    1
    21    32    14    1
    22    18    25   ar
    23    17    16   ar
    24    22    26    1
    25    64    35    1
    26    40     2    1
    27    48     9    1
    28    46     8    1
    29    54    12    1
    30    47     9    1
    31    31     2    1
    32    31    12    1
    33    14    59    1
    34    14    12    1
    35    14    58    1
    36    62    21    1
    37    25    21    1
    38    25     6   ar
    39    16     6   ar
    40    16    36    1
    41     9     2    1
    42     9    10    1
    43     2    39    1
    44    12    55    1
    45    35    63    1
    46    35    36    1
    47    35    65    1
    48    26     8   ar
    49    26    27   ar
    50     8    30   ar
    51    21    28    1
    52     6    44    1
    53    23    10    1
    54    23    27    1
    55    10    49    1
    56    10    50    1
    57    27     7   ar
    58    30    28   ar
    59    30    29   ar
    60    28    24   ar
    61     7    29   ar
    62     7    45    1
    63    29    20   ar
    64    24     3    1
    65    24     4   ar
    66     3    19    3
    67    20     4   ar
    68     4    41    1
