*****
  Mrv15b2304182316253D          

 65 68  0  0  0  0            999 V2000
   -3.9563   -0.8984    2.6487 C   0  0  0  0  0  0  0  0  0  0  0  0
   -1.0508   -6.1711    0.8545 C   0  0  2  0  0  0  0  0  0  0  0  0
    2.3547    3.5611    1.8794 C   0  0  0  0  0  0  0  0  0  0  0  0
    1.8352    2.0477    0.1602 C   0  0  0  0  0  0  0  0  0  0  0  0
   -2.5565    4.7088    1.8239 C   0  0  0  0  0  0  0  0  0  0  0  0
   -1.2908    4.2422    4.3937 C   0  0  0  0  0  0  0  0  0  0  0  0
   -0.4419   -0.8503    0.0891 C   0  0  0  0  0  0  0  0  0  0  0  0
   -1.0475    0.1954    2.7376 C   0  0  0  0  0  0  0  0  0  0  0  0
   -1.7702   -4.9137    0.3540 C   0  0  2  0  0  0  0  0  0  0  0  0
   -1.1657   -3.7189    1.0287 C   0  0  1  0  0  0  0  0  0  0  0  0
   -2.0269  -10.0919    3.5222 C   0  0  0  0  0  0  0  0  0  0  0  0
   -0.9204   -8.5847    0.6081 C   0  0  2  0  0  0  0  0  0  0  0  0
   -3.1764   -7.3768    1.2104 C   0  0  1  0  0  0  0  0  0  0  0  0
   -1.6731   -9.8414    1.1420 C   0  0  1  0  0  0  0  0  0  0  0  0
   -3.1681   -8.2276    2.4974 C   0  0  2  0  0  0  0  0  0  0  0  0
   -2.3806    5.1778    4.2889 C   0  0  0  0  0  0  0  0  0  0  0  0
   -2.9738    5.3882    3.0076 C   0  0  0  0  0  0  0  0  0  0  0  0
   -1.4767    3.7827    1.9472 C   0  0  0  0  0  0  0  0  0  0  0  0
    2.9741    4.4533    2.2513 N   0  0  0  0  0  0  0  0  0  0  0  0
    1.1101    0.9527   -0.2232 N   0  0  0  0  0  0  0  0  0  0  0  0
    0.2558    2.7078    3.3468 N   0  0  2  0  0  0  0  0  0  0  0  0
   -2.7123   -1.5004    2.9748 O   0  0  0  0  0  0  0  0  0  0  0  0
   -1.9714   -2.6226    0.5762 O   0  0  0  0  0  0  0  0  0  0  0  0
    1.6575    2.5571    1.4609 C   0  0  0  0  0  0  0  0  0  0  0  0
   -0.8308    3.5572    3.2268 C   0  0  0  0  0  0  0  0  0  0  0  0
   -1.7310   -0.9300    2.2440 C   0  0  0  0  0  0  0  0  0  0  0  0
   -1.3836   -1.4682    0.9660 C   0  0  0  0  0  0  0  0  0  0  0  0
    0.6920    1.9393    2.3026 C   0  0  0  0  0  0  0  0  0  0  0  0
    0.2295    0.2879    0.5776 C   0  0  0  0  0  0  0  0  0  0  0  0
   -0.0355    0.7797    1.9111 C   0  0  0  0  0  0  0  0  0  0  0  0
   -1.8255   -7.3862    0.5291 N   0  0  1  0  0  0  0  0  0  0  0  0
   -2.6220   -9.6018    2.2800 N   0  0  2  0  0  0  0  0  0  0  0  0
   -4.2366    6.5001    2.8860 Cl  0  0  0  0  0  0  0  0  0  0  0  0
   -0.9446    2.9392    0.5866 Cl  0  0  0  0  0  0  0  0  0  0  0  0
   -3.8592    5.0844    5.9983 C   0  0  0  0  0  0  0  0  0  0  0  0
   -2.8304    5.8399    5.3760 O   0  0  0  0  0  0  0  0  0  0  0  0
   -4.7487   -1.3590    3.2387 H   0  0  0  0  0  0  0  0  0  0  0  0
   -4.1626   -1.0423    1.5881 H   0  0  0  0  0  0  0  0  0  0  0  0
   -0.9136   -6.1059    1.9338 H   0  0  0  0  0  0  0  0  0  0  0  0
   -0.0585   -6.2154    0.4056 H   0  0  0  0  0  0  0  0  0  0  0  0
    2.4924    2.4871   -0.4843 H   0  0  0  0  0  0  0  0  0  0  0  0
   -3.9126    0.1682    2.8688 H   0  0  0  0  0  0  0  0  0  0  0  0
   -3.0110    4.8780    0.9266 H   0  0  0  0  0  0  0  0  0  0  0  0
   -0.8493    4.0692    5.2967 H   0  0  0  0  0  0  0  0  0  0  0  0
   -0.2636   -1.2154   -0.8464 H   0  0  0  0  0  0  0  0  0  0  0  0
   -1.2659    0.5830    3.6555 H   0  0  0  0  0  0  0  0  0  0  0  0
   -2.8289   -4.9763    0.6059 H   0  0  0  0  0  0  0  0  0  0  0  0
   -1.7211   -4.8288   -0.7316 H   0  0  0  0  0  0  0  0  0  0  0  0
   -1.2664   -3.8221    2.1092 H   0  0  0  0  0  0  0  0  0  0  0  0
   -0.1107   -3.5831    0.7907 H   0  0  0  0  0  0  0  0  0  0  0  0
   -1.6287  -11.0940    3.3637 H   0  0  0  0  0  0  0  0  0  0  0  0
   -2.7877  -10.1224    4.3022 H   0  0  0  0  0  0  0  0  0  0  0  0
   -1.2208   -9.4245    3.8269 H   0  0  0  0  0  0  0  0  0  0  0  0
   -0.5127   -8.7979   -0.3801 H   0  0  0  0  0  0  0  0  0  0  0  0
   -0.1205   -8.3340    1.3048 H   0  0  0  0  0  0  0  0  0  0  0  0
   -3.9316   -7.7617    0.5252 H   0  0  0  0  0  0  0  0  0  0  0  0
   -3.4675   -6.3576    1.4647 H   0  0  0  0  0  0  0  0  0  0  0  0
   -2.2044  -10.3227    0.3210 H   0  0  0  0  0  0  0  0  0  0  0  0
   -0.9178  -10.5600    1.4604 H   0  0  0  0  0  0  0  0  0  0  0  0
   -4.1813   -8.2977    2.8931 H   0  0  0  0  0  0  0  0  0  0  0  0
   -2.5145   -7.7439    3.2232 H   0  0  0  0  0  0  0  0  0  0  0  0
    0.1461    2.1517    4.1339 H   0  0  0  0  0  0  0  0  0  0  0  0
   -4.2223    5.6190    6.8761 H   0  0  0  0  0  0  0  0  0  0  0  0
   -4.6798    4.9401    5.2956 H   0  0  0  0  0  0  0  0  0  0  0  0
   -3.4651    4.1142    6.3010 H   0  0  0  0  0  0  0  0  0  0  0  0
 43  5  1  0  0  0  0
 60 15  1  0  0  0  0
 52 11  1  0  0  0  0
 38  1  1  0  0  0  0
 37  1  1  0  0  0  0
 34 18  1  0  0  0  0
 57 13  1  0  0  0  0
 51 11  1  0  0  0  0
 33 17  1  0  0  0  0
  5 18  4  0  0  0  0
  5 17  4  0  0  0  0
  1 42  1  0  0  0  0
  1 22  1  0  0  0  0
 11 32  1  0  0  0  0
 11 53  1  0  0  0  0
 15 13  1  0  0  0  0
 15 32  1  0  0  0  0
 15 61  1  0  0  0  0
 56 13  1  0  0  0  0
 13 31  1  0  0  0  0
 32 14  1  0  0  0  0
 18 25  4  0  0  0  0
 17 16  4  0  0  0  0
 22 26  1  0  0  0  0
 64 35  1  0  0  0  0
 40  2  1  0  0  0  0
 48  9  1  0  0  0  0
 46  8  1  0  0  0  0
 54 12  1  0  0  0  0
 47  9  1  0  0  0  0
 31  2  1  0  0  0  0
 31 12  1  0  0  0  0
 14 59  1  0  0  0  0
 14 12  1  0  0  0  0
 14 58  1  0  0  0  0
 62 21  1  0  0  0  0
 25 21  1  0  0  0  0
 25  6  4  0  0  0  0
 16  6  4  0  0  0  0
 16 36  1  0  0  0  0
  9  2  1  0  0  0  0
  9 10  1  0  0  0  0
  2 39  1  0  0  0  0
 12 55  1  0  0  0  0
 35 63  1  0  0  0  0
 35 36  1  0  0  0  0
 35 65  1  0  0  0  0
 26  8  4  0  0  0  0
 26 27  4  0  0  0  0
  8 30  4  0  0  0  0
 21 28  1  0  0  0  0
  6 44  1  0  0  0  0
 23 10  1  0  0  0  0
 23 27  1  0  0  0  0
 10 49  1  0  0  0  0
 10 50  1  0  0  0  0
 27  7  4  0  0  0  0
 30 28  4  0  0  0  0
 30 29  4  0  0  0  0
 28 24  4  0  0  0  0
  7 29  4  0  0  0  0
  7 45  1  0  0  0  0
 29 20  4  0  0  0  0
 24  3  1  0  0  0  0
 24  4  4  0  0  0  0
  3 19  3  0  0  0  0
 20  4  4  0  0  0  0
  4 41  1  0  0  0  0
M  END
