@<TRIPOS>MOLECULE
lig
 16 17 0 0 0
SMALL
GASTEIGER

@<TRIPOS>ATOM
      1 C           2.7471    1.2565   -0.8679 C.ar    1  UNL11      -0.0617
      2 C           1.8872    1.5220    0.2369 C.ar    1  UNL11      -0.0609
      3 C           0.8047    0.6117    0.4902 C.ar    1  UNL11      -0.0466
      4 C           0.6064   -0.5203   -0.3718 C.ar    1  UNL11       0.0743
      5 C           1.5496   -0.8064   -1.4178 C.ar    1  UNL11      -0.0466
      6 C           2.6195    0.0944   -1.6880 C.ar    1  UNL11      -0.0609
      7 C          -0.5977   -1.2870   -0.3720 C.2     1  UNL11       0.4192
      8 N          -0.8252   -2.4733   -0.9728 N.2     1  UNL11       0.1095
      9 N          -2.0832   -2.7341   -0.8817 N.2     1  UNL11       0.1165
     10 N          -2.6699   -1.7641   -0.2453 N.2     1  UNL11       0.1084
     11 N          -1.7975   -0.8769    0.0816 N.pl3   1  UNL11       0.1384
     12 H           3.4863    1.9259   -1.0823 H       1  UNL11       0.0618
     13 H           2.0362    2.3368    0.8322 H       1  UNL11       0.0618
     14 H           0.1787    0.7688    1.2801 H       1  UNL11       0.0626
     15 H           1.4523   -1.6588   -1.9694 H       1  UNL11       0.0626
     16 H           3.2769   -0.0858   -2.4469 H       1  UNL11       0.0618
@<TRIPOS>UNITY_ATOM_ATTR
8 1
charge -1
@<TRIPOS>BOND
     1     1     2   ar
     2     2     3   ar
     3     3     4   ar
     4     4     5   ar
     5     5     6   ar
     6     1     6   ar
     7     4     7    1
     8     7     8    2
     9     8     9    1
    10     9    10    2
    11    10    11    1
    12     7    11    1
    13     1    12    1
    14     2    13    1
    15     3    14    1
    16     5    15    1
    17     6    16    1
