@<TRIPOS>MOLECULE
*****
 65 68 0 0 0
SMALL
GASTEIGER

@<TRIPOS>ATOM
      1 C           2.6785   -0.7838   -0.8509 C.3     1  UNL1        0.0790
      2 C           7.5717    0.0660   -3.3018 C.3     1  UNL1        0.0021
      3 C           3.8640    5.6593    4.5780 C.1     1  UNL1        0.1026
      4 C           4.9177    5.3145    2.4334 C.ar    1  UNL1        0.0474
      5 C          -1.4467    2.0793    4.0138 C.ar    1  UNL1       -0.0197
      6 C          -0.0087    3.7065    2.3001 C.ar    1  UNL1        0.0041
      7 C           4.5307    3.0689   -0.2950 C.ar    1  UNL1        0.0097
      8 C           2.5914    2.0451    1.3452 C.ar    1  UNL1       -0.0053
      9 C           6.0706    0.0676   -2.9484 C.3     1  UNL1       -0.0058
     10 C           5.6469    1.3078   -2.1603 C.3     1  UNL1        0.0909
     11 C          11.2536   -1.4305   -0.1528 C.3     1  UNL1       -0.0127
     12 C           9.8813    0.3671   -2.5146 C.3     1  UNL1        0.0117
     13 C           8.3327   -0.7940   -1.1190 C.3     1  UNL1        0.0117
     14 C          10.7725    0.6820   -1.2768 C.3     1  UNL1        0.0114
     15 C           9.1066   -0.3487    0.1395 C.3     1  UNL1        0.0114
     16 C          -1.3085    3.3085    1.9284 C.ar    1  UNL1        0.1402
     17 C          -2.0258    2.4807    2.8011 C.ar    1  UNL1        0.0840
     18 C          -0.1614    2.4940    4.3631 C.ar    1  UNL1        0.0637
     19 N           3.8252    6.2058    5.6037 N.1     1  UNL1       -0.1908
     20 N           5.0748    4.7349    1.2259 N.ar    1  UNL1       -0.2535
     21 N           1.9242    3.6516    3.8230 N.pl3   1  UNL1       -0.3117
     22 O           2.1458    0.2354   -0.0183 O.3     1  UNL1       -0.4914
     23 O           4.2500    1.2144   -1.8246 O.3     1  UNL1       -0.4882
     24 C           3.9252    4.9660    3.3306 C.ar    1  UNL1        0.0915
     25 C           0.5868    3.3153    3.5080 C.ar    1  UNL1        0.0535
     26 C           2.9015    1.3636    0.1577 C.ar    1  UNL1        0.1622
     27 C           3.8990    1.8750   -0.6698 C.ar    1  UNL1        0.1639
     28 C           3.0347    3.9303    2.9809 C.ar    1  UNL1        0.0598
     29 C           4.2811    3.7031    0.9108 C.ar    1  UNL1        0.0765
     30 C           3.2564    3.2296    1.7575 C.ar    1  UNL1        0.0265
     31 N           8.4540    0.2512   -2.1477 N.3     1  UNL1       -0.2998
     32 N          10.5526   -0.1536   -0.0751 N.3     1  UNL1       -0.3029
     33 CL         -3.6178    1.8696    2.5227 Cl      1  UNL1       -0.0797
     34 CL          0.5029    1.9301    5.8573 Cl      1  UNL1       -0.0816
     35 C          -2.9207    3.5953    0.1433 C.3     1  UNL1        0.0789
     36 O          -1.6446    3.8285    0.7103 O.3     1  UNL1       -0.4936
     37 H           3.7206   -1.0029   -0.6010 H       1  UNL1        0.0660
     38 H           2.5547   -0.5289   -1.9073 H       1  UNL1        0.0660
     39 H           7.8159   -0.8591   -3.8375 H       1  UNL1        0.0428
     40 H           7.7390    0.8942   -4.0031 H       1  UNL1        0.0428
     41 H           5.6545    6.0807    2.6583 H       1  UNL1        0.0843
     42 H           2.1001   -1.6951   -0.6683 H       1  UNL1        0.0660
     43 H          -1.9977    1.4258    4.6873 H       1  UNL1        0.0648
     44 H           0.5442    4.3465    1.6134 H       1  UNL1        0.0674
     45 H           5.2759    3.5203   -0.9462 H       1  UNL1        0.0677
     46 H           1.8468    1.5915    1.9931 H       1  UNL1        0.0662
     47 H           5.4800    0.0090   -3.8708 H       1  UNL1        0.0310
     48 H           5.8029   -0.8343   -2.3852 H       1  UNL1        0.0310
     49 H           5.8008    2.2044   -2.7711 H       1  UNL1        0.0697
     50 H           6.2519    1.3752   -1.2484 H       1  UNL1        0.0697
     51 H          12.3363   -1.2682   -0.1772 H       1  UNL1        0.0391
     52 H          10.9736   -2.0246   -1.0279 H       1  UNL1        0.0391
     53 H          11.0538   -2.0283    0.7448 H       1  UNL1        0.0391
     54 H          10.2328   -0.5589   -2.9891 H       1  UNL1        0.0439
     55 H          10.0165    1.1762   -3.2427 H       1  UNL1        0.0439
     56 H           8.7049   -1.7574   -1.4922 H       1  UNL1        0.0439
     57 H           7.2924   -0.9490   -0.8212 H       1  UNL1        0.0439
     58 H          11.8303    0.6562   -1.5688 H       1  UNL1        0.0439
     59 H          10.5772    1.7222   -0.9836 H       1  UNL1        0.0439
     60 H           8.6828    0.6040    0.4873 H       1  UNL1        0.0439
     61 H           8.9301   -1.0601    0.9549 H       1  UNL1        0.0439
     62 H           2.0257    3.9031    4.8060 H       1  UNL1        0.1522
     63 H          -3.7175    3.9887    0.7805 H       1  UNL1        0.0660
     64 H          -3.0581    2.5380   -0.1001 H       1  UNL1        0.0660
     65 H          -2.9665    4.1489   -0.8001 H       1  UNL1        0.0660
@<TRIPOS>BOND
     1    43     5    1
     2    60    15    1
     3    52    11    1
     4    38     1    1
     5    37     1    1
     6    34    18    1
     7    57    13    1
     8    51    11    1
     9    33    17    1
    10     5    18   ar
    11     5    17   ar
    12     1    42    1
    13     1    22    1
    14    11    32    1
    15    11    53    1
    16    15    13    1
    17    15    32    1
    18    15    61    1
    19    56    13    1
    20    13    31    1
    21    32    14    1
    22    18    25   ar
    23    17    16   ar
    24    22    26    1
    25    64    35    1
    26    40     2    1
    27    48     9    1
    28    46     8    1
    29    54    12    1
    30    47     9    1
    31    31     2    1
    32    31    12    1
    33    14    59    1
    34    14    12    1
    35    14    58    1
    36    62    21    1
    37    25    21    1
    38    25     6   ar
    39    16     6   ar
    40    16    36    1
    41     9     2    1
    42     9    10    1
    43     2    39    1
    44    12    55    1
    45    35    63    1
    46    35    36    1
    47    35    65    1
    48    26     8   ar
    49    26    27   ar
    50     8    30   ar
    51    21    28    1
    52     6    44    1
    53    23    10    1
    54    23    27    1
    55    10    49    1
    56    10    50    1
    57    27     7   ar
    58    30    28   ar
    59    30    29   ar
    60    28    24   ar
    61     7    29   ar
    62     7    45    1
    63    29    20   ar
    64    24     3    1
    65    24     4   ar
    66     3    19    3
    67    20     4   ar
    68     4    41    1
